packages/openpy-fx-tools-dss/openpy_fx_tools_dss-0.1.3-py3-none-any.whl/openpy_fx_tools_dss/Examples/13Bus/xlsx_files/DSS_files_from_xlsx/Line_13BusIEEE.dss
New "Line.650632" bus1=rg60.1.2.3 bus2=632.1.2.3 linecode=mtx601 length=2000.0 phases=3 units=ft Seasons=1.0 Ratings=[400.0] normamps=400.0 emergamps=600.0 
New "Line.632670" bus1=632.1.2.3 bus2=670.1.2.3 linecode=mtx601 length=667.0 phases=3 units=ft Seasons=1.0 Ratings=[400.0] normamps=400.0 emergamps=600.0 
New "Line.670671" bus1=670.1.2.3 bus2=671.1.2.3 linecode=mtx601 length=1333.0 phases=3 units=ft Seasons=1.0 Ratings=[400.0] normamps=400.0 emergamps=600.0 
New "Line.671680" bus1=671.1.2.3 bus2=680.1.2.3 linecode=mtx601 length=1000.0 phases=3 units=ft Seasons=1.0 Ratings=[400.0] normamps=400.0 emergamps=600.0 
New "Line.632633" bus1=632.1.2.3 bus2=633.1.2.3 linecode=mtx602 length=500.0 phases=3 units=ft Seasons=1.0 Ratings=[400.0] normamps=400.0 emergamps=600.0 
New "Line.632645" bus1=632.3.2 bus2=645.3.2 linecode=mtx603 length=500.0 phases=2 units=ft Seasons=1.0 Ratings=[400.0] normamps=400.0 emergamps=600.0 
New "Line.645646" bus1=645.3.2 bus2=646.3.2 linecode=mtx603 length=300.0 phases=2 units=ft Seasons=1.0 Ratings=[400.0] normamps=400.0 emergamps=600.0 
New "Line.692675" bus1=692.1.2.3 bus2=675.1.2.3 linecode=mtx606 length=500.0 phases=3 units=ft Seasons=1.0 Ratings=[400.0] normamps=400.0 emergamps=600.0 
New "Line.671684" bus1=671.1.3 bus2=684.1.3 linecode=mtx604 length=300.0 phases=2 units=ft Seasons=1.0 Ratings=[400.0] normamps=400.0 emergamps=600.0 
New "Line.684611" bus1=684.3 bus2=611.3 linecode=mtx605 length=300.0 phases=1 units=ft Seasons=1.0 Ratings=[400.0] normamps=400.0 emergamps=600.0 
New "Line.684652" bus1=684.1 bus2=652.1 linecode=mtx607 length=800.0 phases=1 units=ft Seasons=1.0 Ratings=[400.0] normamps=400.0 emergamps=600.0 
New "Line.671692" bus1=671.1.2.3.0 bus2=692.1.2.3.0 length=0.001 phases=3 r1=0.0001 x1=0.0 r0=0.0001 x0=0.0 C1=0.0 C0=0.0 Switch=Yes 
