packages/openpy-fx-tools-dss/openpy_fx_tools_dss-0.1.3-py3-none-any.whl/openpy_fx_tools_dss/Examples/13Bus/xlsx_files/DSS_files_from_xlsx/13BusIEEE_Curr_Elem.Txt

CIRCUIT ELEMENT CURRENTS

(Currents into element from indicated bus)

Power Delivery Elements

  Bus     Phase    Magnitude, A     Angle      (Real)   +j  (Imag)

ELEMENT = "Vsource.SOURCE"
SOURCEBUS     1           17.742 /_  178.7 =    -17.737 +j   0.41608
SOURCEBUS     2           19.833 /_   72.1 =     6.1113 +j    18.868
SOURCEBUS     3           22.517 /_  -58.9 =     11.625 +j   -19.284
------------
SOURCEBUS     0           17.742 /_   -1.3 =     17.737 +j  -0.41608
SOURCEBUS     0           19.833 /_ -107.9 =    -6.1113 +j   -18.868
SOURCEBUS     0           22.517 /_  121.1 =    -11.625 +j    19.284

ELEMENT = "Line.650632"
RG60          1           565.39 /_  -29.3 =     493.11 +j    -276.6
RG60          2           411.15 /_ -140.3 =    -316.53 +j    -262.4
RG60          3           598.52 /_   93.2 =    -33.882 +j    597.56
------------
632           1           565.39 /_  150.7 =    -493.11 +j     276.6
632           2           411.15 /_   39.7 =     316.53 +j     262.4
632           3           598.52 /_  -86.8 =     33.881 +j   -597.56

ELEMENT = "Line.632670"
632           1           484.49 /_  -27.8 =     428.37 +j   -226.33
632           2           211.23 /_ -133.2 =    -144.52 +j   -154.05
632           3           486.78 /_   99.3 =    -78.872 +j    480.35
------------
670           1           484.49 /_  152.2 =    -428.37 +j    226.33
670           2           211.23 /_   46.8 =     144.52 +j    154.05
670           3           486.78 /_  -80.7 =     78.872 +j   -480.35

ELEMENT = "Line.670671"
670           1           476.35 /_  -27.7 =     421.58 +j   -221.76
670           2           182.46 /_ -130.1 =    -117.48 +j    -139.6
670           3           431.27 /_  100.9 =    -81.907 +j    423.42
------------
671           1           476.35 /_  152.3 =    -421.58 +j    221.76
671           2           182.46 /_   49.9 =     117.48 +j     139.6
671           3           431.27 /_  -79.1 =     81.906 +j   -423.42

ELEMENT = "Line.671680"
671           1       0.00057153 /_   85.7 =  4.3104E-005 +j 0.0005699
671           2       0.00059896 /_  -32.9 =  0.00050289 +j -0.00032536
671           3       0.00057138 /_ -154.5 =  -0.00051587 +j -0.00024567
------------
680           1      1.6396E-012 /_   56.3 =  9.0949E-013 +j 1.3642E-012
680           2      2.3739E-012 /_   16.7 =  2.2737E-012 +j 6.8212E-013
680           3      4.0674E-012 /_   26.6 =  3.638E-012 +j 1.819E-012

ELEMENT = "Line.632633"
632           1           81.967 /_  -37.8 =     64.742 +j    -50.27
632           2           61.814 /_ -159.1 =    -57.756 +j   -22.026
632           3           63.638 /_   80.4 =     10.606 +j    62.748
------------
633           1           81.967 /_  142.2 =    -64.742 +j     50.27
633           2           61.814 /_   20.9 =     57.756 +j    22.026
633           3           63.638 /_  -99.6 =    -10.607 +j   -62.748

ELEMENT = "Line.632645"
632           3           64.407 /_   57.7 =     34.384 +j    54.461
632           2            143.2 /_ -142.9 =    -114.26 +j   -86.327
------------
645           3           64.407 /_ -122.3 =    -34.385 +j   -54.461
645           2            143.2 /_   37.1 =     114.26 +j    86.327

ELEMENT = "Line.645646"
645           3           64.407 /_   57.7 =     34.385 +j    54.461
645           2           64.407 /_ -122.3 =    -34.385 +j   -54.461
------------
646           3           64.407 /_ -122.3 =    -34.385 +j   -54.461
646           2           64.407 /_   57.7 =     34.385 +j    54.461

ELEMENT = "Line.692675"
692           1           207.22 /_   -5.7 =     206.19 +j   -20.617
692           2           68.835 /_  -55.7 =     38.806 +j   -56.853
692           3           126.22 /_  110.6 =    -44.486 +j    118.13
------------
675           1           207.22 /_  174.3 =    -206.19 +j    20.649
675           2           68.803 /_  124.3 =    -38.777 +j    56.835
675           3           126.23 /_  -69.4 =     44.457 +j   -118.14

ELEMENT = "Line.671684"
671           1           62.593 /_  -39.3 =     48.453 +j   -39.626
671           3           71.144 /_  121.1 =     -36.76 +j    60.912
------------
684           1           62.593 /_  140.7 =    -48.452 +j    39.626
684           3           71.144 /_  -58.9 =      36.76 +j   -60.912

ELEMENT = "Line.684611"
684           3           71.144 /_  121.1 =     -36.76 +j    60.912
------------
611           3           71.144 /_  -58.9 =      36.76 +j   -60.912

ELEMENT = "Line.684652"
684           1           62.593 /_  -39.3 =     48.452 +j   -39.626
------------
652           1           62.611 /_  140.7 =    -48.449 +j    39.658

ELEMENT = "Line.671692"
671           1           231.41 /_  -18.6 =     219.37 +j   -73.661
671           2           68.835 /_  -55.7 =     38.806 +j   -56.853
671           3           180.62 /_  108.6 =    -57.669 +j    171.17
------------
692           1           231.41 /_  161.4 =    -219.37 +j    73.661
692           2           68.835 /_  124.3 =    -38.806 +j    56.853
692           3           180.62 /_  -71.4 =     57.669 +j   -171.17

ELEMENT = "Transformer.SUB"
SOURCEBUS     1           17.742 /_   -1.3 =     17.737 +j  -0.41608
SOURCEBUS     2           19.833 /_ -107.9 =    -6.1113 +j   -18.868
SOURCEBUS     3           22.517 /_  121.1 =    -11.625 +j    19.284
SOURCEBUS     0                0 /_    0.0 =          0 +j         0
------------
650           1            597.2 /_  150.7 =    -520.85 +j    292.16
650           2           426.57 /_   39.7 =      328.4 +j    272.24
650           3           632.18 /_  -86.8 =     35.787 +j   -631.17
650           0            170.3 /_   23.1 =     156.66 +j    66.769

ELEMENT = "Transformer.REG1"
650           1            597.2 /_  -29.3 =     520.85 +j   -292.16
650           0            597.2 /_  150.7 =    -520.85 +j    292.16
------------
RG60          1           565.39 /_  150.7 =    -493.11 +j     276.6
RG60          0           565.39 /_  -29.3 =     493.11 +j    -276.6

ELEMENT = "Transformer.REG2"
650           2           426.57 /_ -140.3 =     -328.4 +j   -272.24
650           0           426.57 /_   39.7 =      328.4 +j    272.24
------------
RG60          2           411.15 /_   39.7 =     316.53 +j     262.4
RG60          0           411.15 /_ -140.3 =    -316.53 +j    -262.4

ELEMENT = "Transformer.REG3"
650           3           632.18 /_   93.2 =    -35.787 +j    631.17
650           0           632.18 /_  -86.8 =     35.788 +j   -631.17
------------
RG60          3           598.52 /_  -86.8 =     33.882 +j   -597.56
RG60          0           598.52 /_   93.2 =    -33.882 +j    597.56

ELEMENT = "Transformer.XFM1"
633           1           81.967 /_  -37.8 =     64.742 +j    -50.27
633           2           61.814 /_ -159.1 =    -57.756 +j   -22.026
633           3           63.638 /_   80.4 =     10.607 +j    62.748
633           0           20.016 /_  151.5 =    -17.592 +j    9.5484
------------
634           1           710.38 /_  142.2 =    -561.09 +j    435.68
634           2           535.72 /_   20.9 =     500.56 +j    190.89
634           3           551.53 /_  -99.6 =    -91.925 +j   -543.82
634           0           173.47 /_  -28.5 =     152.46 +j   -82.753

ELEMENT = "Capacitor.CAP1"
675           1           81.148 /_   84.3 =     8.0747 +j    80.746
675           2           87.134 /_  -32.5 =     73.457 +j   -46.865
675           3           80.008 /_ -154.0 =    -71.903 +j    -35.09
------------
675           0           81.148 /_  -95.7 =    -8.0747 +j   -80.746
675           0           87.134 /_  147.5 =    -73.457 +j    46.865
675           0           80.008 /_   26.0 =     71.903 +j     35.09

ELEMENT = "Capacitor.CAP2"
611           3           39.979 /_ -154.2 =    -36.009 +j   -17.369
------------
611           0           39.979 /_   25.8 =     36.009 +j    17.369

= = = = = = = = = = = = = = = = = = =  = = = = = = = = = = =  = =

Power Conversion Elements

  Bus     Phase    Magnitude, A     Angle      (Real)   +j  (Imag)

ELEMENT = "Load.671"
671           1           188.17 /_  -35.2 =     153.76 +j   -108.47
671           2           176.84 /_ -152.1 =    -156.29 +j   -82.744
671           3           191.75 /_   86.3 =     12.524 +j    191.34
671           0           9.9902 /_ -179.3 =    -9.9894 +j  -0.12572

ELEMENT = "Load.634A"
634           1           710.38 /_  -37.8 =     561.09 +j   -435.68
634           0           710.38 /_  142.2 =    -561.09 +j    435.68

ELEMENT = "Load.634B"
634           2           535.72 /_ -159.1 =    -500.56 +j   -190.89
634           0           535.72 /_   20.9 =     500.56 +j    190.89

ELEMENT = "Load.634C"
634           3           551.53 /_   80.4 =     91.925 +j    543.82
634           0           551.53 /_  -99.6 =    -91.925 +j   -543.82

ELEMENT = "Load.645"
645           2           85.996 /_ -158.3 =    -79.874 +j   -31.866
645           0           85.996 /_   21.7 =     79.874 +j    31.866

ELEMENT = "Load.646"
646           2           64.407 /_ -122.3 =    -34.385 +j   -54.461
646           3           64.407 /_   57.7 =     34.385 +j    54.461

ELEMENT = "Load.692"
692           3           54.658 /_  104.0 =    -13.183 +j    53.045
692           1           54.658 /_  -76.0 =     13.183 +j   -53.045

ELEMENT = "Load.675A"
675           1           222.55 /_  -27.1 =     198.11 +j   -101.39
675           0           222.55 /_  152.9 =    -198.11 +j    101.39

ELEMENT = "Load.675B"
675           2           36.084 /_ -164.0 =     -34.68 +j   -9.9699
675           0           36.084 /_   16.0 =      34.68 +j    9.9699

ELEMENT = "Load.675C"
675           3           155.67 /_   79.8 =     27.445 +j    153.23
675           0           155.67 /_ -100.2 =    -27.445 +j   -153.23

ELEMENT = "Load.611"
611           3           78.285 /_   90.5 =   -0.75111 +j    78.281
611           0           78.285 /_  -89.5 =    0.75111 +j   -78.281

ELEMENT = "Load.652"
652           1           62.611 /_  -39.3 =     48.449 +j   -39.658
652           0           62.611 /_  140.7 =    -48.449 +j    39.658

ELEMENT = "Load.670A"
670           1           8.1881 /_  -34.0 =     6.7903 +j   -4.5757
670           0           8.1881 /_  146.0 =    -6.7903 +j    4.5757

ELEMENT = "Load.670B"
670           2           30.655 /_ -151.9 =    -27.037 +j   -14.447
670           0           30.655 /_   28.1 =     27.037 +j    14.447

ELEMENT = "Load.670C"
670           3           57.007 /_   86.9 =     3.0351 +j    56.926
670           0           57.007 /_  -93.1 =    -3.0351 +j   -56.926

