packages/openpy-fx-tools-dss/openpy_fx_tools_dss-0.1.3-py3-none-any.whl/openpy_fx_tools_dss/Examples/13Bus/xlsx_files/DSS_files_from_xlsx/13BusIEEE_Power_elem_kVA.txt

CIRCUIT ELEMENT POWER FLOW

(Power Flow into element from indicated Bus)

Power Delivery Elements

  Bus     Phase     kW     +j   kvar         kVA         PF

ELEMENT = "Vsource.SOURCE"
SOURCEBUS     1     -1006.1 +j   -612.6     1178.0       0.8541
SOURCEBUS     2     -1252.7 +j   -405.5     1316.7       0.9514
SOURCEBUS     3     -1308.7 +j   -722.6     1494.9       0.8754
   TERMINAL TOTAL . -3567.6 +j  -1740.8     3969.6       0.8987
SOURCEBUS     0         0.0 +j      0.0        0.0       1.0000
SOURCEBUS     0         0.0 +j      0.0        0.0       1.0000
SOURCEBUS     0         0.0 +j      0.0        0.0       1.0000
   TERMINAL TOTAL .     0.0 +j      0.0        0.0       1.0000

ELEMENT = "Line.650632"
RG60          1      1250.9 +j    701.3     1434.1       0.8723
RG60          2       960.6 +j    355.9     1024.4       0.9377
RG60          3      1355.7 +j    682.9     1518.0       0.8931
   TERMINAL TOTAL .  3567.2 +j   1740.2     3969.0       0.8988
632           1     -1229.3 +j   -618.9     1376.3       0.8932
632           2      -964.8 +j   -324.7     1017.9       0.9478
632           3     -1311.8 +j   -598.6     1442.0       0.9098
   TERMINAL TOTAL . -3506.0 +j  -1542.1     3830.1       0.9154

ELEMENT = "Line.632670"
632           1      1066.4 +j    503.7     1179.4       0.9042
632           2       512.6 +j    103.6      523.0       0.9802
632           3      1112.5 +j    371.1     1172.8       0.9486
   TERMINAL TOTAL .  2691.5 +j    978.4     2863.8       0.9398
670           1     -1063.3 +j   -481.0     1167.1       0.9111
670           2      -514.7 +j   -102.1      524.8       0.9809
670           3     -1100.2 +j   -353.0     1155.5       0.9522
   TERMINAL TOTAL . -2678.3 +j   -936.1     2837.2       0.9440

ELEMENT = "Line.670671"
670           1      1046.3 +j    471.0     1147.5       0.9119
670           2       448.7 +j     64.1      453.3       0.9899
670           3       983.2 +j    285.0     1023.7       0.9605
   TERMINAL TOTAL .  2478.3 +j    820.1     2610.5       0.9494
671           1     -1038.7 +j   -425.8     1122.6       0.9253
671           2      -453.3 +j    -61.5      457.5       0.9909
671           3      -963.1 +j   -259.0      997.3       0.9657
   TERMINAL TOTAL . -2455.1 +j   -746.2     2566.0       0.9568

ELEMENT = "Line.671680"
671           1        -0.0 +j     -0.0        0.0       0.0198
671           2         0.0 +j     -0.0        0.0      -0.0095
671           3         0.0 +j     -0.0        0.0      -0.0093
   TERMINAL TOTAL .     0.0 +j     -0.0        0.0      -0.0000
680           1        -0.0 +j     -0.0        0.0       0.0951
680           2         0.0 +j     -0.0        0.0      -0.0408
680           3        -0.0 +j      0.0        0.0      -0.4384
   TERMINAL TOTAL .    -0.0 +j     -0.0        0.0       0.0817

ELEMENT = "Line.632633"
632           1       162.9 +j    115.2      199.5       0.8165
632           2       121.6 +j     92.9      153.0       0.7946
632           3       121.9 +j     93.1      153.3       0.7948
   TERMINAL TOTAL .   406.4 +j    301.2      505.8       0.8034
633           1      -162.6 +j   -114.7      198.9       0.8172
633           2      -121.5 +j    -92.6      152.8       0.7951
633           3      -121.5 +j    -92.8      152.9       0.7948
   TERMINAL TOTAL .  -405.6 +j   -300.1      504.5       0.8039

ELEMENT = "Line.632645"
632           3        77.5 +j    134.4      155.2       0.4994
632           2       330.6 +j    128.1      354.5       0.9324
   TERMINAL TOTAL .   408.1 +j    262.6      485.3       0.8410
645           3       -77.3 +j   -134.2      154.9       0.4990
645           2      -328.0 +j   -125.9      351.4       0.9336
   TERMINAL TOTAL .  -405.3 +j   -260.2      481.6       0.8415

ELEMENT = "Line.645646"
645           3        77.3 +j    134.2      154.9       0.4990
645           2       158.0 +j      0.9      158.0       1.0000
   TERMINAL TOTAL .   235.3 +j    135.2      271.4       0.8671
646           3       -77.0 +j   -134.0      154.6       0.4983
646           2      -157.8 +j     -0.7      157.8       1.0000
   TERMINAL TOTAL .  -234.8 +j   -134.8      270.7       0.8673

ELEMENT = "Line.692675"
692           1       488.3 +j      2.1      488.3       1.0000
692           2        68.3 +j   -158.5      172.6      -0.3959
692           3       290.6 +j     27.2      291.8       0.9956
   TERMINAL TOTAL .   847.2 +j   -129.1      857.0      -0.9886
675           1      -485.0 +j     -0.1      485.0       1.0000
675           2       -68.0 +j    159.0      172.9      -0.3933
675           3      -290.0 +j    -27.3      291.3       0.9956
   TERMINAL TOTAL .  -843.0 +j    131.5      853.2      -0.9880

ELEMENT = "Line.671684"
671           1       122.5 +j     82.1      147.5       0.8308
671           3       163.9 +j    -14.7      164.5      -0.9960
   TERMINAL TOTAL .   286.4 +j     67.4      294.2       0.9734
684           1      -122.3 +j    -81.9      147.2       0.8310
684           3      -163.5 +j     14.9      164.2      -0.9959
   TERMINAL TOTAL .  -285.8 +j    -67.0      293.6       0.9736

ELEMENT = "Line.684611"
684           3       163.5 +j    -14.9      164.2      -0.9959
   TERMINAL TOTAL .   163.5 +j    -14.9      164.2      -0.9959
611           3      -163.1 +j     15.3      163.8      -0.9956
   TERMINAL TOTAL .  -163.1 +j     15.3      163.8      -0.9956

ELEMENT = "Line.684652"
684           1       122.3 +j     81.9      147.2       0.8310
   TERMINAL TOTAL .   122.3 +j     81.9      147.2       0.8310
652           1      -121.5 +j    -81.7      146.4       0.8300
   TERMINAL TOTAL .  -121.5 +j    -81.7      146.4       0.8300

ELEMENT = "Line.671692"
671           1       531.2 +j    123.7      545.4       0.9740
671           2        68.3 +j   -158.5      172.6      -0.3960
671           3       414.2 +j     53.6      417.7       0.9917
   TERMINAL TOTAL .  1013.7 +j     18.8     1013.9       0.9998
692           1      -531.1 +j   -123.6      545.3       0.9740
692           2       -68.3 +j    158.5      172.6      -0.3959
692           3      -414.2 +j    -53.6      417.6       0.9917
   TERMINAL TOTAL . -1013.6 +j    -18.7     1013.8       0.9998

ELEMENT = "Transformer.SUB"
SOURCEBUS     1      1006.1 +j    612.6     1178.0       0.8541
SOURCEBUS     2      1252.7 +j    405.5     1316.7       0.9514
SOURCEBUS     3      1308.7 +j    722.6     1494.9       0.8754
SOURCEBUS     0         0.0 +j      0.0        0.0       1.0000
   TERMINAL TOTAL .  3567.6 +j   1740.8     3969.6       0.8987
650           1     -1251.1 +j   -701.4     1434.3       0.8723
650           2      -960.7 +j   -356.0     1024.5       0.9377
650           3     -1355.8 +j   -683.1     1518.2       0.8931
650           0         0.0 +j      0.0        0.0       1.0000
   TERMINAL TOTAL . -3567.5 +j  -1740.5     3969.5       0.8987

ELEMENT = "Transformer.REG1"
650           1      1251.1 +j    701.4     1434.3       0.8723
650           0         0.0 +j      0.0        0.0       1.0000
   TERMINAL TOTAL .  1251.1 +j    701.4     1434.3       0.8723
RG60          1     -1250.9 +j   -701.3     1434.1       0.8723
RG60          0         0.0 +j      0.0        0.0       1.0000
   TERMINAL TOTAL . -1250.9 +j   -701.3     1434.1       0.8723

ELEMENT = "Transformer.REG2"
650           2       960.7 +j    356.0     1024.5       0.9377
650           0         0.0 +j      0.0        0.0       1.0000
   TERMINAL TOTAL .   960.7 +j    356.0     1024.5       0.9377
RG60          2      -960.6 +j   -355.9     1024.4       0.9377
RG60          0         0.0 +j      0.0        0.0       1.0000
   TERMINAL TOTAL .  -960.6 +j   -355.9     1024.4       0.9377

ELEMENT = "Transformer.REG3"
650           3      1355.8 +j    683.1     1518.2       0.8931
650           0         0.0 +j      0.0        0.0       1.0000
   TERMINAL TOTAL .  1355.8 +j    683.1     1518.2       0.8931
RG60          3     -1355.7 +j   -682.9     1518.0       0.8931
RG60          0         0.0 +j      0.0        0.0       1.0000
   TERMINAL TOTAL . -1355.7 +j   -682.9     1518.0       0.8931

ELEMENT = "Transformer.XFM1"
633           1       162.6 +j    114.7      198.9       0.8172
633           2       121.5 +j     92.6      152.8       0.7951
633           3       121.5 +j     92.8      152.9       0.7948
633           0         0.0 +j      0.0        0.0       1.0000
   TERMINAL TOTAL .   405.6 +j    300.1      504.5       0.8039
634           1      -160.0 +j   -110.0      194.2       0.8240
634           2      -120.0 +j    -90.0      150.0       0.8000
634           3      -120.0 +j    -90.0      150.0       0.8000
634           0         0.0 +j      0.0        0.0       1.0000
   TERMINAL TOTAL .  -400.0 +j   -290.0      494.1       0.8096

ELEMENT = "Capacitor.CAP1"
675           1         0.0 +j   -189.9      189.9       1.0000
675           2         0.0 +j   -219.0      219.0      -0.0000
675           3         0.0 +j   -184.6      184.6       1.0000
   TERMINAL TOTAL .     0.0 +j   -593.5      593.5      -0.0000
675           0         0.0 +j      0.0        0.0       1.0000
675           0         0.0 +j      0.0        0.0       1.0000
675           0         0.0 +j      0.0        0.0       1.0000
   TERMINAL TOTAL .     0.0 +j      0.0        0.0       1.0000

ELEMENT = "Capacitor.CAP2"
611           3        -0.0 +j    -92.1       92.1       0.0000
   TERMINAL TOTAL .    -0.0 +j    -92.1       92.1       0.0000
611           0         0.0 +j      0.0        0.0       1.0000
   TERMINAL TOTAL .     0.0 +j      0.0        0.0       1.0000

= = = = = = = = = = = = = = = = = = =  = = = = = = = = = = =  = =

Power Conversion Elements

  Bus     Phase     kW   +j  kvar         kVA         PF

ELEMENT = "Load.671"
671           1     385.0 +j  220.0      443.4       0.8682
671           2     385.0 +j  220.0      443.4       0.8682
671           3     385.0 +j  220.0      443.4       0.8683
671           0       0.0 +j    0.0        0.0       1.0000
  TERMINAL TOTAL  .  1155.0 +j    660.0     1330.3       0.8682

ELEMENT = "Load.634A"
634           1     160.0 +j  110.0      194.2       0.8240
634           0       0.0 +j    0.0        0.0       1.0000
  TERMINAL TOTAL  .   160.0 +j    110.0      194.2       0.8240

ELEMENT = "Load.634B"
634           2     120.0 +j   90.0      150.0       0.8000
634           0       0.0 +j    0.0        0.0       1.0000
  TERMINAL TOTAL  .   120.0 +j     90.0      150.0       0.8000

ELEMENT = "Load.634C"
634           3     120.0 +j   90.0      150.0       0.8000
634           0       0.0 +j    0.0        0.0       1.0000
  TERMINAL TOTAL  .   120.0 +j     90.0      150.0       0.8000

ELEMENT = "Load.645"
645           2     170.0 +j  125.0      211.0       0.8056
645           0       0.0 +j    0.0        0.0       1.0000
  TERMINAL TOTAL  .   170.0 +j    125.0      211.0       0.8056

ELEMENT = "Load.646"
646           2     157.8 +j    0.7      157.8       1.0000
646           3      77.0 +j  134.0      154.6       0.4983
  TERMINAL TOTAL  .   234.8 +j    134.7      270.7       0.8673

ELEMENT = "Load.692"
692           3     123.6 +j   26.4      126.4       0.9780
692           1      42.8 +j  121.5      128.8       0.3325
  TERMINAL TOTAL  .   166.4 +j    147.8      222.6       0.7476

ELEMENT = "Load.675A"
675           1     485.0 +j  190.0      520.9       0.9311
675           0       0.0 +j    0.0        0.0       1.0000
  TERMINAL TOTAL  .   485.0 +j    190.0      520.9       0.9311

ELEMENT = "Load.675B"
675           2      68.0 +j   60.0       90.7       0.7498
675           0       0.0 +j    0.0        0.0       1.0000
  TERMINAL TOTAL  .    68.0 +j     60.0       90.7       0.7498

ELEMENT = "Load.675C"
675           3     290.0 +j  212.0      359.2       0.8073
675           0       0.0 +j    0.0        0.0       1.0000
  TERMINAL TOTAL  .   290.0 +j    212.0      359.2       0.8073

ELEMENT = "Load.611"
611           3     163.1 +j   76.8      180.3       0.9048
611           0       0.0 +j    0.0        0.0       1.0000
  TERMINAL TOTAL  .   163.1 +j     76.8      180.3       0.9048

ELEMENT = "Load.652"
652           1     121.5 +j   81.7      146.4       0.8300
652           0       0.0 +j    0.0        0.0       1.0000
  TERMINAL TOTAL  .   121.5 +j     81.7      146.4       0.8300

ELEMENT = "Load.670A"
670           1      17.0 +j   10.0       19.7       0.8619
670           0       0.0 +j    0.0        0.0       1.0000
  TERMINAL TOTAL  .    17.0 +j     10.0       19.7       0.8619

ELEMENT = "Load.670B"
670           2      66.0 +j   38.0       76.2       0.8666
670           0       0.0 +j    0.0        0.0       1.0000
  TERMINAL TOTAL  .    66.0 +j     38.0       76.2       0.8666

ELEMENT = "Load.670C"
670           3     117.0 +j   68.0      135.3       0.8646
670           0       0.0 +j    0.0        0.0       1.0000
  TERMINAL TOTAL  .   117.0 +j     68.0      135.3       0.8646


Total Circuit Losses =  113.7 +j  332.4
