packages/openpy-fx-tools-dss/openpy_fx_tools_dss-0.1.3-py3-none-any.whl/openpy_fx_tools_dss/Examples/13Bus/xlsx_files/DSS_files_from_xlsx/13BusIEEE_VLN_elem.Txt

NODE-GROUND VOLTAGES BY CIRCUIT ELEMENT

Power Delivery Elements

Bus       (node ref)  Phase    Magnitude, kV (pu)    Angle

ELEMENT = "Vsource.SOURCE"
SOURCEBUS  (  1)    1           66.394 (       1) /_   30.0
SOURCEBUS  (  2)    2           66.395 (       1) /_  -90.0
SOURCEBUS  (  3)    3           66.392 (  0.9999) /_  150.0
------------
SOURCEBUS  (  0)    0                0 (       0) /_    0.0
SOURCEBUS  (  0)    0                0 (       0) /_    0.0
SOURCEBUS  (  0)    0                0 (       0) /_    0.0

ELEMENT = "Line.650632"
RG60       (  4)    1           2.5363 (   1.056) /_    0.0
RG60       (  5)    2           2.4916 (   1.037) /_ -120.0
RG60       (  6)    3           2.5364 (   1.056) /_  120.0
------------
632        (  7)    1           2.4342 (   1.013) /_   -2.6
632        (  8)    2           2.4758 (   1.031) /_ -121.7
632        (  9)    3           2.4093 (   1.003) /_  117.8

ELEMENT = "Line.632670"
632        (  7)    1           2.4342 (   1.013) /_   -2.6
632        (  8)    2           2.4758 (   1.031) /_ -121.7
632        (  9)    3           2.4093 (   1.003) /_  117.8
------------
670        ( 10)    1           2.4087 (   1.003) /_   -3.5
670        ( 11)    2           2.4843 (   1.034) /_ -122.0
670        ( 12)    3           2.3738 (  0.9884) /_  117.1

ELEMENT = "Line.670671"
670        ( 10)    1           2.4087 (   1.003) /_   -3.5
670        ( 11)    2           2.4843 (   1.034) /_ -122.0
670        ( 12)    3           2.3738 (  0.9884) /_  117.1
------------
671        ( 13)    1           2.3565 (  0.9812) /_   -5.5
671        ( 14)    2           2.5074 (   1.044) /_ -122.4
671        ( 15)    3           2.3125 (  0.9628) /_  116.0

ELEMENT = "Line.671680"
671        ( 13)    1           2.3565 (  0.9812) /_   -5.5
671        ( 14)    2           2.5074 (   1.044) /_ -122.4
671        ( 15)    3           2.3125 (  0.9628) /_  116.0
------------
680        ( 16)    1           2.3565 (  0.9812) /_   -5.5
680        ( 17)    2           2.5074 (   1.044) /_ -122.4
680        ( 18)    3           2.3125 (  0.9628) /_  116.0

ELEMENT = "Line.632633"
632        (  7)    1           2.4342 (   1.013) /_   -2.6
632        (  8)    2           2.4758 (   1.031) /_ -121.7
632        (  9)    3           2.4093 (   1.003) /_  117.8
------------
633        ( 19)    1           2.4269 (    1.01) /_   -2.6
633        ( 20)    2           2.4712 (   1.029) /_ -121.8
633        ( 21)    3            2.403 (   1.001) /_  117.8

ELEMENT = "Line.632645"
632        (  9)    3           2.4093 (   1.003) /_  117.8
632        (  8)    2           2.4758 (   1.031) /_ -121.7
------------
645        ( 22)    3           2.4047 (   1.001) /_  117.8
645        ( 23)    2           2.4537 (   1.022) /_ -121.9

ELEMENT = "Line.645646"
645        ( 22)    3           2.4047 (   1.001) /_  117.8
645        ( 23)    2           2.4537 (   1.022) /_ -121.9
------------
646        ( 24)    3           2.3999 (  0.9992) /_  117.8
646        ( 25)    2           2.4496 (    1.02) /_ -122.0

ELEMENT = "Line.692675"
692        ( 26)    1           2.3563 (   0.981) /_   -5.5
692        ( 27)    2           2.5075 (   1.044) /_ -122.4
692        ( 28)    3           2.3123 (  0.9627) /_  116.0
------------
675        ( 29)    1           2.3405 (  0.9745) /_   -5.7
675        ( 30)    2           2.5132 (   1.046) /_ -122.5
675        ( 31)    3           2.3077 (  0.9608) /_  116.0

ELEMENT = "Line.671684"
671        ( 13)    1           2.3565 (  0.9812) /_   -5.5
671        ( 15)    3           2.3125 (  0.9628) /_  116.0
------------
684        ( 32)    1           2.3519 (  0.9792) /_   -5.5
684        ( 33)    3           2.3076 (  0.9608) /_  115.9

ELEMENT = "Line.684611"
684        ( 33)    3           2.3076 (  0.9608) /_  115.9
------------
611        ( 34)    3           2.3028 (  0.9588) /_  115.8

ELEMENT = "Line.684652"
684        ( 32)    1           2.3519 (  0.9792) /_   -5.5
------------
652        ( 35)    1           2.3386 (  0.9737) /_   -5.4

ELEMENT = "Line.671692"
671        ( 13)    1           2.3565 (  0.9812) /_   -5.5
671        ( 14)    2           2.5074 (   1.044) /_ -122.4
671        ( 15)    3           2.3125 (  0.9628) /_  116.0
------------
692        ( 26)    1           2.3563 (   0.981) /_   -5.5
692        ( 27)    2           2.5075 (   1.044) /_ -122.4
692        ( 28)    3           2.3123 (  0.9627) /_  116.0

ELEMENT = "Transformer.SUB"
SOURCEBUS  (  1)    1           66.394 (       1) /_   30.0
SOURCEBUS  (  2)    2           66.395 (       1) /_  -90.0
SOURCEBUS  (  3)    3           66.392 (  0.9999) /_  150.0
SOURCEBUS  (  0)    0                0 (       0) /_    0.0
------------
650        ( 39)    1           2.4016 (  0.9999) /_    0.0
650        ( 40)    2           2.4017 (       1) /_ -120.0
650        ( 41)    3           2.4016 (  0.9999) /_  120.0
650        (  0)    0                0 (       0) /_    0.0

ELEMENT = "Transformer.REG1"
650        ( 39)    1           2.4016 (  0.9999) /_    0.0
650        (  0)    0                0 (       0) /_    0.0
------------
RG60       (  4)    1           2.5363 (   1.056) /_    0.0
RG60       (  0)    0                0 (       0) /_    0.0

ELEMENT = "Transformer.REG2"
650        ( 40)    2           2.4017 (       1) /_ -120.0
650        (  0)    0                0 (       0) /_    0.0
------------
RG60       (  5)    2           2.4916 (   1.037) /_ -120.0
RG60       (  0)    0                0 (       0) /_    0.0

ELEMENT = "Transformer.REG3"
650        ( 41)    3           2.4016 (  0.9999) /_  120.0
650        (  0)    0                0 (       0) /_    0.0
------------
RG60       (  6)    3           2.5364 (   1.056) /_  120.0
RG60       (  0)    0                0 (       0) /_    0.0

ELEMENT = "Transformer.XFM1"
633        ( 19)    1           2.4269 (    1.01) /_   -2.6
633        ( 20)    2           2.4712 (   1.029) /_ -121.8
633        ( 21)    3            2.403 (   1.001) /_  117.8
633        (  0)    0                0 (       0) /_    0.0
------------
634        ( 36)    1          0.27333 (  0.9863) /_   -3.3
634        ( 37)    2             0.28 (    1.01) /_ -122.3
634        ( 38)    3          0.27197 (  0.9814) /_  117.3
634        (  0)    0                0 (       0) /_    0.0

ELEMENT = "Capacitor.CAP1"
675        ( 29)    1           2.3405 (  0.9745) /_   -5.7
675        ( 30)    2           2.5132 (   1.046) /_ -122.5
675        ( 31)    3           2.3077 (  0.9608) /_  116.0
------------
675        (  0)    0                0 (       0) /_    0.0
675        (  0)    0                0 (       0) /_    0.0
675        (  0)    0                0 (       0) /_    0.0

ELEMENT = "Capacitor.CAP2"
611        ( 34)    3           2.3028 (  0.9588) /_  115.8
------------
611        (  0)    0                0 (       0) /_    0.0

= = = = = = = = = = = = = = = = = = =  = = = = = = = = = = =  = =

Power Conversion Elements

Bus       (node ref)  Phase    Magnitude, kV (pu)    Angle

ELEMENT = "Load.671"
671        ( 13)    1           2.3565 (  0.9812) /_   -5.5
671        ( 14)    2           2.5074 (   1.044) /_ -122.4
671        ( 15)    3           2.3125 (  0.9628) /_  116.0
671        (  0)    0                0 (       0) /_    0.0

ELEMENT = "Load.634A"
634        ( 36)    1          0.27333 (  0.9863) /_   -3.3
634        (  0)    0                0 (       0) /_    0.0

ELEMENT = "Load.634B"
634        ( 37)    2             0.28 (    1.01) /_ -122.3
634        (  0)    0                0 (       0) /_    0.0

ELEMENT = "Load.634C"
634        ( 38)    3          0.27197 (  0.9814) /_  117.3
634        (  0)    0                0 (       0) /_    0.0

ELEMENT = "Load.645"
645        ( 23)    2           2.4537 (   1.022) /_ -121.9
645        (  0)    0                0 (       0) /_    0.0

ELEMENT = "Load.646"
646        ( 25)    2           2.4496 (    1.02) /_ -122.0
646        ( 24)    3           2.3999 (  0.9992) /_  117.8

ELEMENT = "Load.692"
692        ( 28)    3           2.3123 (  0.9627) /_  116.0
692        ( 26)    1           2.3563 (   0.981) /_   -5.5

ELEMENT = "Load.675A"
675        ( 29)    1           2.3405 (  0.9745) /_   -5.7
675        (  0)    0                0 (       0) /_    0.0

ELEMENT = "Load.675B"
675        ( 30)    2           2.5132 (   1.046) /_ -122.5
675        (  0)    0                0 (       0) /_    0.0

ELEMENT = "Load.675C"
675        ( 31)    3           2.3077 (  0.9608) /_  116.0
675        (  0)    0                0 (       0) /_    0.0

ELEMENT = "Load.611"
611        ( 34)    3           2.3028 (  0.9588) /_  115.8
611        (  0)    0                0 (       0) /_    0.0

ELEMENT = "Load.652"
652        ( 35)    1           2.3386 (  0.9737) /_   -5.4
652        (  0)    0                0 (       0) /_    0.0

ELEMENT = "Load.670A"
670        ( 10)    1           2.4087 (   1.003) /_   -3.5
670        (  0)    0                0 (       0) /_    0.0

ELEMENT = "Load.670B"
670        ( 11)    2           2.4843 (   1.034) /_ -122.0
670        (  0)    0                0 (       0) /_    0.0

ELEMENT = "Load.670C"
670        ( 12)    3           2.3738 (  0.9884) /_  117.1
670        (  0)    0                0 (       0) /_    0.0

