packages/openpy-fx-tools-dss/openpy_fx_tools_dss-0.1.3.tar.gz/openpy_fx_tools_dss-0.1.3/openpy_fx_tools_dss/Examples/13Bus/xlsx_files/DSS_files_from_xlsx/13BusIEEE_VLN.Txt

SYMMETRICAL COMPONENT VOLTAGES BY BUS (for 3-phase buses)

Bus        Mag:   V1 (kV)    p.u.     V2 (kV)   %V2/V1    V0 (kV)    %V0/V1

sourcebus     66.39          1   0.001851   0.002789 4.32E-009 6.506E-009
rg60          2.521       1.05    0.01489     0.5904   0.01497    0.5937
632            2.44      1.016    0.01399     0.5733   0.02768     1.134
670           2.422      1.008    0.02466      1.018   0.04753     1.962
671           2.392     0.9958     0.0455      1.903   0.08798     3.679
680           2.392     0.9958     0.0455      1.903   0.08798     3.679
633           2.434      1.013    0.01402     0.5762   0.02862     1.176
645           2.405      1.001          0          0         0         0
646             2.4     0.9992          0          0         0         0
692           2.391     0.9957     0.0456      1.907   0.08806     3.682
675           2.387     0.9936    0.04877      2.044   0.09331      3.91
684           2.352     0.9792          0          0         0         0
611           2.303     0.9588          0          0         0         0
652           2.339     0.9737          0          0         0         0
634          0.2751     0.9926   0.001838     0.6681  0.003651     1.327
650           2.402     0.9999  8.846E-005   0.003683 1.584E-005 0.0006595
